
**** 03/29/15 12:15:44 ********* PSpice 9.2 (Mar 2000) ******** ID# 1 ********

 ** Profile: "SCHEMATIC1-symulacja-filtr"  [ c:\users\jakub\desktop\saic\sim\filtr_sr-schematic1-symulacja-filtr.sim ] 


 ****     CIRCUIT DESCRIPTION


******************************************************************************




** Creating circuit file "filtr_sr-schematic1-symulacja-filtr.sim.cir" 
** WARNING: THIS AUTOMATICALLY GENERATED FILE MAY BE OVERWRITTEN BY SUBSEQUENT SIMULATIONS

*Libraries: 
* Local Libraries :
* From [PSPICE NETLIST] section of C:\Program Files\Orcad\PSpice\PSpice.ini file:
.lib "nom.lib" 

*Analysis directives: 
.DC LIN V_V1 0 30 1 
.PROBE V(*) I(*) W(*) D(*) NOISE(*) 
.INC ".\filtr_sr-SCHEMATIC1.net" 



**** INCLUDING filtr_sr-SCHEMATIC1.net ****
* source FILTR_SR
C_C1         0 N01199  1n  
C_C2         0 N01199  1n  
R_R6         0 N02512  2k  
V_V1         N01199 0 20Vdc
C_C3         0 OUT  1n  
R_R5         N02512 OUT  10k  
R_R3         0 N02512  2.4k  
C_1n         0 OUT  400n  
X_U4         N01199 OUT N02512 LM7805C

**** RESUMING filtr_sr-schematic1-symulacja-filtr.sim.cir ****
.END

**** 03/29/15 12:15:44 ********* PSpice 9.2 (Mar 2000) ******** ID# 1 ********

 ** Profile: "SCHEMATIC1-symulacja-filtr"  [ c:\users\jakub\desktop\saic\sim\filtr_sr-schematic1-symulacja-filtr.sim ] 


 ****     Diode MODEL PARAMETERS


******************************************************************************




               X_U4.x1.Dlim    X_U4.x1.Dz      
          IS   10.000000E-15   50.000000E-15 
          BV                    7.11         
         IBV                   50.000000E-09 
          RS                    3            
          VJ     .7                          


**** 03/29/15 12:15:44 ********* PSpice 9.2 (Mar 2000) ******** ID# 1 ********

 ** Profile: "SCHEMATIC1-symulacja-filtr"  [ c:\users\jakub\desktop\saic\sim\filtr_sr-schematic1-symulacja-filtr.sim ] 


 ****     BJT MODEL PARAMETERS


******************************************************************************




               X_U4.x1.Npn1    
               NPN             
          IS   10.000000E-15 
          BF   50            
          NF    1            
          BR    1            
          NR    1            
          CN    2.42         
           D     .87         


**** 03/29/15 12:15:44 ********* PSpice 9.2 (Mar 2000) ******** ID# 1 ********

 ** Profile: "SCHEMATIC1-symulacja-filtr"  [ c:\users\jakub\desktop\saic\sim\filtr_sr-schematic1-symulacja-filtr.sim ] 


 ****     Voltage Controlled Switch MODEL PARAMETERS


******************************************************************************




               X_U4.x1.Sbg1    
         RON    1            
        ROFF    1.000000E+06 
         VON    3.7          
        VOFF    3            



          JOB CONCLUDED

          TOTAL JOB TIME             .03
