
**** 03/31/15 12:27:28 ********* PSpice 9.2 (Mar 2000) ******** ID# 1 ********

 ** Profile: "SCHEMATIC1-symulacja-filtr"  [ c:\users\jakub\desktop\saic\saic\sim\filtr_sr-schematic1-symulacja-filtr.sim ] 


 ****     CIRCUIT DESCRIPTION


******************************************************************************




** Creating circuit file "filtr_sr-schematic1-symulacja-filtr.sim.cir" 
** WARNING: THIS AUTOMATICALLY GENERATED FILE MAY BE OVERWRITTEN BY SUBSEQUENT SIMULATIONS

*Libraries: 
* Local Libraries :
* From [PSPICE NETLIST] section of C:\Program Files\Orcad\PSpice\PSpice.ini file:
.lib "nom.lib" 

*Analysis directives: 
.DC LIN V_V1 0 50 1 
.PROBE V(*) I(*) W(*) D(*) NOISE(*) 
.INC ".\filtr_sr-SCHEMATIC1.net" 



**** INCLUDING filtr_sr-SCHEMATIC1.net ****
* source FILTR_SR
C_C1         0 N01199  1u  
C_C2         0 N01199  1u  
R_R6         0 N02512  7.5k  
V_V1         N01199 0 20Vdc
C_C3         0 OUT  1u  
R_R5         N02512 OUT  1k  
C_1n         0 OUT  1u  
X_U5         N01199 N02512 OUT LM317

**** RESUMING filtr_sr-schematic1-symulacja-filtr.sim.cir ****
.END

**** 03/31/15 12:27:28 ********* PSpice 9.2 (Mar 2000) ******** ID# 1 ********

 ** Profile: "SCHEMATIC1-symulacja-filtr"  [ c:\users\jakub\desktop\saic\saic\sim\filtr_sr-schematic1-symulacja-filtr.sim ] 


 ****     Diode MODEL PARAMETERS


******************************************************************************




               X_U5.DMOD       
          IS   30.000000E-15 
           N    1.701        


**** 03/31/15 12:27:28 ********* PSpice 9.2 (Mar 2000) ******** ID# 1 ********

 ** Profile: "SCHEMATIC1-symulacja-filtr"  [ c:\users\jakub\desktop\saic\saic\sim\filtr_sr-schematic1-symulacja-filtr.sim ] 


 ****     BJT MODEL PARAMETERS


******************************************************************************




               X_U5.QPASSMOD   
               NPN             
          IS   30.000000E-15 
          BF   50            
          NF    1.701        
         VAF    1.5          
          BR    1            
          NR    1            
          CN    2.42         
           D     .87         


**** 03/31/15 12:27:28 ********* PSpice 9.2 (Mar 2000) ******** ID# 1 ********

 ** Profile: "SCHEMATIC1-symulacja-filtr"  [ c:\users\jakub\desktop\saic\saic\sim\filtr_sr-schematic1-symulacja-filtr.sim ] 


 ****     Junction FET MODEL PARAMETERS


******************************************************************************




               X_U5.JADJMOD    
               NJF             
         VTO   -1            
        BETA   50.000000E-06 



          JOB CONCLUDED

          TOTAL JOB TIME             .11
