
**** 04/23/15 20:04:57 ********* PSpice 9.2 (Mar 2000) ******** ID# 1 ********

 ** Profile: "SCHEMATIC1-sim_tr"  [ f:\air\tr\wzmtranzystorowy-SCHEMATIC1-sim_tr.sim ] 


 ****     CIRCUIT DESCRIPTION


******************************************************************************




** Creating circuit file "wzmtranzystorowy-SCHEMATIC1-sim_tr.sim.cir" 
** WARNING: THIS AUTOMATICALLY GENERATED FILE MAY BE OVERWRITTEN BY SUBSEQUENT SIMULATIONS

*Libraries: 
* Local Libraries :
* From [PSPICE NETLIST] section of E:\Program Files\Orcad\PSpice\PSpice.ini file:
.lib "nom.lib" 

*Analysis directives: 
.AC DEC 100 10 400M
---------------$
ERROR -- Invalid value
.PROBE V(*) I(*) W(*) D(*) NOISE(*) 
.INC ".\wzmtranzystorowy-SCHEMATIC1.net" 



**** INCLUDING wzmtranzystorowy-SCHEMATIC1.net ****
* source WZMTRANZYSTOROWY
C_CE         0 N00605  100u  
Q_Q1         N00684 N00448 N00605 BC107B 
C_C2         OUT N00684  4u  
R_Rg         IN N01464  1.2k  
V_Vcc         N00528 0 12Vdc
R_RB1         N00448 N00528  1k  
R_RB2         0 N00448  8.2k  
R_RC         N00684 N00528  1k  
R_RE         0 N00605  510  
V_V2         N01464 0 DC 0Vdc AC 1Vac 
R_Rw         0 OUT  1.6k  
C_C1         IN N00448  4u  

**** RESUMING wzmtranzystorowy-SCHEMATIC1-sim_tr.sim.cir ****
.END
