
**** 04/27/15 22:36:26 ********* PSpice 9.2 (Mar 2000) ******** ID# 1 ********

 ** Profile: "SCHEMATIC1-sp"  [ c:\users\winda\desktop\saic\sim\zas-schematic1-sp.sim ] 


 ****     CIRCUIT DESCRIPTION


******************************************************************************




** Creating circuit file "zas-schematic1-sp.sim.cir" 
** WARNING: THIS AUTOMATICALLY GENERATED FILE MAY BE OVERWRITTEN BY SUBSEQUENT SIMULATIONS

*Libraries: 
* Local Libraries :
* From [PSPICE NETLIST] section of C:\Program Files\Orcad\PSpice\PSpice.ini file:
.lib "nom.lib" 

*Analysis directives: 
.TRAN  0 10ms 0 SKIPBP 
.PROBE V(*) I(*) W(*) D(*) NOISE(*) 
.INC ".\zas-SCHEMATIC1.net" 



**** INCLUDING zas-SCHEMATIC1.net ****
* source ZAS
V_V2         N50219 0  
+PULSE 0 5 0 10n 10n 70u 200u
C_C2         N00723 0  100n  
R_R2         0 N00324  10k  
C_C3         N00042 0  2u  
R_R1         N50219 N487210  1k  
D_D2         0 N00324 Dbreak 
X_U5         N51498 N48919 WYJSCIE N00723 N00042 KONDENSATOR KONDENSATOR N00723
+  555B
C_C         0 KONDENSATOR  4,7n  
-----------------------------$
ERROR -- unknown parameter
C_C4         0 N00723  100u  
C_C1         N487210 N00324  3n  
R_Ra         KONDENSATOR N00723  10k  
R_R4         N51498 WYJSCIE  1k  
Q_Q3         N48919 N00324 0 Q2N2222
R_R3         N48919 N00723  1k  
V_V4         N00723 0 5Vdc

**** RESUMING zas-schematic1-sp.sim.cir ****
.END
