
**** 04/20/15 15:56:54 ********* PSpice 9.2 (Mar 2000) ******** ID# 1 ********

 ** Profile: "SCHEMATIC1-sp"  [ c:\users\winda\desktop\saic\saic\sim\zas-schematic1-sp.sim ] 


 ****     CIRCUIT DESCRIPTION


******************************************************************************




** Creating circuit file "zas-schematic1-sp.sim.cir" 
** WARNING: THIS AUTOMATICALLY GENERATED FILE MAY BE OVERWRITTEN BY SUBSEQUENT SIMULATIONS

*Libraries: 
* Local Libraries :
* From [PSPICE NETLIST] section of C:\Program Files\Orcad\PSpice\PSpice.ini file:
.lib "nom.lib" 

*Analysis directives: 
.TRAN  0 10ms 0 
.PROBE V(*) I(*) W(*) D(*) NOISE(*) 
.INC ".\zas-SCHEMATIC1.net" 



**** INCLUDING zas-SCHEMATIC1.net ****
* source ZAS
C_C3         N12618 N12428  1n  
C_C2         0 N09334  100n  
Q_Q1         N10683 N10852 0 BC107A 
C_C4         0 N09334  100u  
C_C5         N12179 N10852  1n  
R_R4         N12179  1k  
-------------------------$
ERROR -- Missing model
R_Rb         N10683 N09604  910  
V_V4         N12618 0 DC 0Vdc AC 1Vac 
R_Ra         N09604 N09334  910  
R_R3         N10005 N09334  1k  
V_V3         N09334 0 5Vdc
D_D1         N10852 0 D1N3064 
C_C         0 N12226  1n  
R_R2         0 N10852  1k  
X_U1         0 N10005 OUTPUT N09334 N12428 N09604 N12226 N09334 555B

**** RESUMING zas-schematic1-sp.sim.cir ****
.END
