
**** 04/14/15 07:54:14 ********* PSpice 9.2 (Mar 2000) ******** ID# 1 ********

 ** Profile: "SCHEMATIC1-sp"  [ f:\air\saic\sim\zas-schematic1-sp.sim ] 


 ****     CIRCUIT DESCRIPTION


******************************************************************************




** Creating circuit file "zas-schematic1-sp.sim.cir" 
** WARNING: THIS AUTOMATICALLY GENERATED FILE MAY BE OVERWRITTEN BY SUBSEQUENT SIMULATIONS

*Libraries: 
* Local Libraries :
* From [PSPICE NETLIST] section of E:\Program Files\Orcad\PSpice\PSpice.ini file:
.lib "nom.lib" 

*Analysis directives: 
.TRAN  0 1ms 0 
.PROBE V(*) I(*) W(*) D(*) NOISE(*) 
.INC ".\zas-SCHEMATIC1.net" 



**** INCLUDING zas-SCHEMATIC1.net ****
* source ZAS
V_V1         IN 0 9Vdc
R_R2         N01000 N00567  100  
R_R1         0 N00583  23  
Q_Q1         IN N01000 N00567 Q2N5339
L_L1         N00567 N00583  330u  
C_C1         0 N00583  47u  
D_D1         0 N00567 D1N5818 
V_V2         N01000 N01000  
+PULSE -2 1.5 0 40n 40n 16.67n 25n

**** RESUMING zas-schematic1-sp.sim.cir ****
.END

ERROR -- Voltage source and/or inductor loop involving V_V2
You may break the loop by adding a series resistance