
**** 04/27/15 22:46:49 ********* PSpice 9.2 (Mar 2000) ******** ID# 1 ********

 ** Profile: "SCHEMATIC1-sp"  [ c:\users\winda\desktop\saic\sim\zas-schematic1-sp.sim ] 


 ****     CIRCUIT DESCRIPTION


******************************************************************************




** Creating circuit file "zas-schematic1-sp.sim.cir" 
** WARNING: THIS AUTOMATICALLY GENERATED FILE MAY BE OVERWRITTEN BY SUBSEQUENT SIMULATIONS

*Libraries: 
* Local Libraries :
* From [PSPICE NETLIST] section of C:\Program Files\Orcad\PSpice\PSpice.ini file:
.lib "nom.lib" 

*Analysis directives: 
.TRAN  0 10ms 0 SKIPBP 
.PROBE V(*) I(*) W(*) D(*) NOISE(*) 
.INC ".\zas-SCHEMATIC1.net" 



**** INCLUDING zas-SCHEMATIC1.net ****
* source ZAS
V_V2         N50219 0  
+PULSE 0 5 0 10n 10n 70u 200u
C_C2         N00723 0  100n  
R_R2         0 N00324  10k  
C_C3         N00042 0  2u  
R_R1         N50219 N487210  1k  
D_D2         0 N00324 Dbreak 
X_U5         0 N48919 WYJSCIE N00723 N00042 KONDENSATOR KONDENSATOR N00723 555B
C_C         0 KONDENSATOR  4.7n  
C_C4         0 N00723  100u  
C_C1         N487210 N00324  3n  
R_Ra         KONDENSATOR N00723  10k  
R_R4         0 WYJSCIE  1k  
Q_Q3         N48919 N00324 0 Q2N2222
R_R3         N48919 N00723  1k  
V_V4         N00723 0 5Vdc

**** RESUMING zas-schematic1-sp.sim.cir ****
.END

**** 04/27/15 22:46:49 ********* PSpice 9.2 (Mar 2000) ******** ID# 1 ********

 ** Profile: "SCHEMATIC1-sp"  [ c:\users\winda\desktop\saic\sim\zas-schematic1-sp.sim ] 


 ****     Diode MODEL PARAMETERS


******************************************************************************




               Dbreak          
          IS   10.000000E-15 
          RS     .1          
         CJO  100.000000E-15 


**** 04/27/15 22:46:49 ********* PSpice 9.2 (Mar 2000) ******** ID# 1 ********

 ** Profile: "SCHEMATIC1-sp"  [ c:\users\winda\desktop\saic\sim\zas-schematic1-sp.sim ] 


 ****     BJT MODEL PARAMETERS


******************************************************************************




               Q2N2222         X_U5.qnpn555    X_U5.qpnp555    
               NPN             NPN             PNP             
          IS   14.340000E-15   14.340000E-15  650.600000E-18 
          BF  255.9            65.62           70.35         
          NF    1               1               1            
         VAF   74.03           74.03          115.7          
         IKF     .2847           .02             .02         
         ISE   14.340000E-15   19.480000E-15  180.500000E-15 
          NE    1.307           1.208           1.829        
          BR    6.092           9.715           4.146        
          NR    1               1               1            
          RB   10              10              10            
          RC    1               1                .715        
         CJE   22.010000E-12   40.000000E-12   40.000000E-12 
         MJE     .377            .377            .3357       
         CJC    7.306000E-12   40.000000E-12   40.000000E-12 
         MJC     .3416           .3416           .5383       
          TF  411.100000E-12    1.000000E-09    1.000000E-09 
         XTF    3               3               1.7          
         VTF    1.7             1.7             5            
         ITF     .6              .6              .65         
          TR   46.910000E-09   58.980000E-09  119.900000E-09 
         XTB    1.5             1.5             1.5          
          CN    2.42            2.42            2.2          
           D     .87             .87             .52         



          JOB CONCLUDED

          TOTAL JOB TIME            5.08
