
**** 03/10/15 09:50:48 ********* PSpice 9.2 (Mar 2000) ******** ID# 1 ********

 ** Profile: "SCHEMATIC1-wzmacniacz2sim"  [ c:\users\robert koban\documents\wzmacniacz2\wzmacniacz2-SCHEMATIC1-wzmacniacz2sim.sim ] 


 ****     CIRCUIT DESCRIPTION


******************************************************************************




** Creating circuit file "wzmacniacz2-SCHEMATIC1-wzmacniacz2sim.sim.cir" 
** WARNING: THIS AUTOMATICALLY GENERATED FILE MAY BE OVERWRITTEN BY SUBSEQUENT SIMULATIONS

*Libraries: 
* Local Libraries :
* From [PSPICE NETLIST] section of d:\pspice\PSpice\PSpice.ini file:
.lib "nom.lib" 

*Analysis directives: 
.AC DEC 100 10 10Meg
.PROBE V(*) I(*) W(*) D(*) NOISE(*) 
.INC ".\wzmacniacz2-SCHEMATIC1.net" 



**** INCLUDING wzmacniacz2-SCHEMATIC1.net ****
* source WZMACNIACZ2
R_R1         0 N01253  1  
X_U6         0 N01253 N00874 N01096 OUT TL061/301/TI
R_R2         N01253 OUT  6  
V_V1         0 0 DC 0Vdc AC 1Vac 
V_V2         N00874 0 15Vdc
V_V3         0 N01096 15Vdc

**** RESUMING wzmacniacz2-SCHEMATIC1-wzmacniacz2sim.sim.cir ****
.END

ERROR -- Voltage source and/or inductor loop involving V_V1
You may break the loop by adding a series resistance